@<TRIPOS>MOLECULE
BNZ
   12    12     1     0     0
SMALL
bcc


@<TRIPOS>ATOM
      1 C1           5.2740     1.9990    -8.5680 ca         1 BNZ      -0.130000
      2 C2           6.6270     2.0180    -8.2090 ca         1 BNZ      -0.130000
      3 C3           7.3660     0.8290    -8.2020 ca         1 BNZ      -0.130000
      4 C4           6.7520    -0.3790    -8.5540 ca         1 BNZ      -0.130000
      5 C5           5.3990    -0.3980    -8.9120 ca         1 BNZ      -0.130000
      6 C6           4.6600     0.7910    -8.9190 ca         1 BNZ      -0.130000
      7 H1           4.7040     2.9160    -8.5730 ha         1 BNZ       0.130000
      8 H2           7.1010     2.9500    -7.9380 ha         1 BNZ       0.130000
      9 H3           8.4100     0.8440    -7.9260 ha         1 BNZ       0.130000
     10 H4           7.3220    -1.2960    -8.5480 ha         1 BNZ       0.130000
     11 H5           4.9250    -1.3300    -9.1830 ha         1 BNZ       0.130000
     12 H6           3.6160     0.7760    -9.1960 ha         1 BNZ       0.130000
@<TRIPOS>BOND
     1     1     2 ar  
     2     1     6 ar  
     3     1     7 1   
     4     2     3 ar  
     5     2     8 1   
     6     3     4 ar  
     7     3     9 1   
     8     4     5 ar  
     9     4    10 1   
    10     5     6 ar  
    11     5    11 1   
    12     6    12 1   
@<TRIPOS>SUBSTRUCTURE
     1 BNZ         1 TEMP              0 ****  ****    0 ROOT
